LTspice 24.1.1 for Windows
Circuit: C:\Users\Sricharan\OneDrive\Important Docs\02 IIITH Docs\02 IIITH Classwork\1-2\01 Analog Electronic Circuits\Project\Final Schematics\Mixer.net
Start Time: Sun May  4 18:25:36 2025
Ignoring BSIM parameter XL
Ignoring BSIM parameter XW
solver = Normal
Maximum thread count: 16
tnom = 27
temp = 27
method = modified trap
Direct Newton iteration for .op point succeeded.
Total elapsed time: 0.395 seconds.

Files loaded:
C:\Users\Sricharan\OneDrive\Important Docs\02 IIITH Docs\02 IIITH Classwork\1-2\01 Analog Electronic Circuits\Project\Final Schematics\Mixer.net
C:\Users\Sricharan\AppData\Local\LTspice\lib\cmp\standard.mos
C:\Users\Sricharan\AppData\Local\LTspice\lib\sub\TSMC_180nm.txt

